10

C -1.83337627e+00  1.52864213e-16  3.62184378e-01
H -2.78128420e+00  5.34283450e-16 -1.39872751e-01
H -1.85755235e+00 -3.14359819e-16  1.43664264e+00
C -6.67087511e-01  2.55377626e-16 -3.23583629e-01
H -6.80782100e-01  7.29913533e-16 -1.40003063e+00
C  6.67087511e-01 -2.55377626e-16  3.23583629e-01
H  6.80782100e-01 -7.29913533e-16  1.40003063e+00
C  1.83337627e+00 -1.52864213e-16 -3.62184378e-01
H  1.85755235e+00  3.14359819e-16 -1.43664264e+00
H  2.78128420e+00 -5.34283450e-16  1.39872751e-01